Cc1ccsc1C1(O)CCOC1
 OpenBabel03262013053D

 18 19  0  0  1  0  0  0  0  0999 V2000
    2.6244   -0.3204    0.0030 C   0  0  0  0  0  0  0  0  0  0  0  0
    1.1487   -0.0653   -0.0019 C   0  0  0  0  0  0  0  0  0  0  0  0
    0.5577    1.2199    0.0010 C   0  0  0  0  0  0  0  0  0  0  0  0
   -0.7851    1.2166   -0.0030 C   0  0  0  0  0  0  0  0  0  0  0  0
   -1.4005   -0.3714    0.0020 S   0  0  0  0  0  0  0  0  0  0  0  0
    0.1829   -0.9540   -0.0102 C   0  0  0  0  0  0  0  0  0  0  0  0
    0.7593   -3.2703    1.1063 C   0  0  3  0  0  0  0  0  0  0  0  0
    0.3797   -2.5572    0.0072 O   0  0  0  0  0  0  0  0  0  0  0  0
    0.7298   -2.3113   -0.2964 C   0  0  0  0  0  2  0  0  0  0  0  0
    0.3797   -2.5572    0.0072 C   0  0  0  0  0  2  0  0  0  0  0  0
    0.3797   -2.5572    0.0072 O   0  0  0  0  0  0  0  0  0  0  0  0
    0.3797   -2.5572    0.0072 C   0  0  0  0  0  2  0  0  0  0  0  0
    3.1460    0.6144    0.0045 H   0  0  0  0  0  0  0  0  0  0  0  0
    2.8955   -0.8785   -0.8702 H   0  0  0  0  0  0  0  0  0  0  0  0
    2.8896   -0.8781    0.8782 H   0  0  0  0  0  0  0  0  0  0  0  0
    1.1148    2.0915    0.0058 H   0  0  0  0  0  0  0  0  0  0  0  0
   -1.3714    2.0694   -0.0084 H   0  0  0  0  0  0  0  0  0  0  0  0
   -0.6424   -1.9351    0.5862 H   0  0  0  0  0  0  0  0  0  0  0  0
  1  2  1  0  0  0  0
  1 13  1  0  0  0  0
  1 14  1  0  0  0  0
  1 15  1  0  0  0  0
  2  3  1  0  0  0  0
  2  6  2  0  0  0  0
  3  4  2  0  0  0  0
  3 16  1  0  0  0  0
  4  5  1  0  0  0  0
  4 17  1  0  0  0  0
  5  6  1  0  0  0  0
  6  7  1  0  0  0  0
  7  8  1  0  0  0  0
  7  9  1  0  0  0  0
  7 12  1  0  0  0  0
  8 18  1  0  0  0  0
  9 10  1  0  0  0  0
 10 11  1  0  0  0  0
 11 12  1  0  0  0  0
M  END
$$$$
